/*--------------------------------*- C++ -*----------------------------------*\
  =========                 |
  \\      /  F ield         | OpenFOAM: The Open Source CFD Toolbox
   \\    /   O peration     | Website:  https://openfoam.org
    \\  /    A nd           | Version:  7
     \\/     M anipulation  |
\*---------------------------------------------------------------------------*/
FoamFile
{
    version     2.0;
    format      ascii;
    class       dictionary;
    location    "constant/polyMesh";
    object      meshMetaDict;
}
// * * * * * * * * * * * * * * * * * * * * * * * * * * * * * * * * * * * * * //

surfaceFile     "Patched.stl";

surfaceMeta
{
    nPoints         7842;
    nFacets         15614;
    nPatches        6;
    nFeatureEdges   0;
    patches
    {
        patch0
        {
            type            empty;
            nFacets         582;
        }
        patch1
        {
            type            empty;
            nFacets         12672;
        }
        patch2
        {
            type            empty;
            nFacets         598;
        }
        patch3
        {
            type            empty;
            nFacets         586;
        }
        patch4
        {
            type            empty;
            nFacets         592;
        }
        patch5
        {
            type            empty;
            nFacets         584;
        }
    }
    pointSubsets
    {
    }
    facetSubsets
    {
    }
    featureEdgeSubsets
    {
    }
}
