/*--------------------------------*- C++ -*----------------------------------*\
  =========                 |
  \\      /  F ield         | OpenFOAM: The Open Source CFD Toolbox
   \\    /   O peration     | Website:  https://openfoam.org
    \\  /    A nd           | Version:  7
     \\/     M anipulation  |
\*---------------------------------------------------------------------------*/
FoamFile
{
    version     2.0;
    format      ascii;
    class       featureEdgeMesh;
    location    "constant/triSurface";
    object      patched.eMesh;
}
// * * * * * * * * * * * * * * * * * * * * * * * * * * * * * * * * * * * * * //


// points:

403
(
(-115.867 -140.323 -246.076)
(-137.45799 -152.42799 -220.028)
(-108.14 -141.23199 -226.871)
(-139.472 -182.55499 -204.97)
(-139.707 -182.22099 -206.15401)
(-139.95599 -181.923 -207.32401)
(-140.22301 -181.65401 -208.466)
(-140.51401 -181.403 -209.565)
(-140.83299 -181.161 -210.605)
(-141.188 -180.92 -211.571)
(-141.582 -180.67 -212.45)
(-142.022 -180.403 -213.22501)
(-142.51199 -180.10899 -213.883)
(-143.058 -179.77901 -214.407)
(-143.66499 -179.40401 -214.784)
(-144.339 -178.97501 -214.998)
(-145.144 -178.53799 -215.022)
(-146.11099 -178.145 -214.847)
(-147.19701 -177.797 -214.485)
(-148.354 -177.492 -213.951)
(-149.539 -177.231 -213.255)
(-150.705 -177.01199 -212.41)
(-151.808 -176.83501 -211.42999)
(-152.80299 -176.7 -210.327)
(-153.644 -176.606 -209.11301)
(-154.287 -176.55299 -207.80099)
(-154.685 -176.53999 -206.40401)
(-154.795 -176.567 -204.93401)
(-154.757 -176.601 -203.485)
(-154.72099 -176.62 -202.14101)
(-154.65199 -176.642 -200.90401)
(-154.51801 -176.683 -199.77299)
(-154.285 -176.758 -198.74899)
(-153.91901 -176.88499 -197.83299)
(-153.388 -177.08099 -197.02499)
(-152.65601 -177.36099 -196.327)
(-151.692 -177.742 -195.73801)
(-150.461 -178.24001 -195.25999)
(-148.92999 -178.873 -194.892)
(-147.065 -179.657 -194.636)
(-145.181 -180.467 -194.58099)
(-143.601 -181.17 -194.795)
(-142.30099 -181.76801 -195.24699)
(-141.259 -182.261 -195.90601)
(-140.452 -182.64999 -196.742)
(-139.858 -182.936 -197.72501)
(-139.453 -183.121 -198.82201)
(-139.214 -183.205 -200.005)
(-139.12 -183.189 -201.242)
(-139.147 -183.075 -202.502)
(-139.271 -182.86301 -203.755)
(-122.907 -141.57899 -249.22701)
(-123 -142.166 -249.33501)
(-122.689 -141.101 -249.08)
(-122.361 -140.722 -248.897)
(-121.939 -140.431 -248.685)
(-121.439 -140.22 -248.448)
(-120.875 -140.077 -248.192)
(-120.264 -139.992 -247.92101)
(-119.621 -139.95599 -247.64101)
(-118.962 -139.959 -247.35699)
(-118.301 -139.989 -247.075)
(-117.655 -140.03799 -246.799)
(-117.04 -140.095 -246.534)
(-116.448 -140.181 -246.291)
(-115.307 -140.519 -245.88901)
(-114.774 -140.769 -245.731)
(-114.278 -141.07001 -245.601)
(-113.825 -141.422 -245.49899)
(-113.424 -141.82201 -245.42599)
(-113.082 -142.271 -245.381)
(-112.809 -142.765 -245.36501)
(-112.61 -143.304 -245.379)
(-112.496 -143.88699 -245.42101)
(-112.473 -144.511 -245.492)
(-112.544 -145.129 -245.58099)
(-112.702 -145.69099 -245.677)
(-112.939 -146.19701 -245.782)
(-113.246 -146.647 -245.89799)
(-113.617 -147.039 -246.02499)
(-114.044 -147.37399 -246.16499)
(-114.517 -147.64999 -246.319)
(-115.031 -147.866 -246.489)
(-115.576 -148.02299 -246.675)
(-116.146 -148.12 -246.881)
(-116.731 -148.155 -247.106)
(-117.325 -148.12801 -247.35201)
(-117.939 -148.01199 -247.61301)
(-118.58 -147.786 -247.879)
(-119.231 -147.46201 -248.144)
(-119.878 -147.054 -248.399)
(-120.504 -146.57201 -248.63901)
(-121.094 -146.028 -248.858)
(-121.632 -145.436 -249.047)
(-122.103 -144.80701 -249.202)
(-122.491 -144.15401 -249.314)
(-122.78 -143.48801 -249.379)
(-122.955 -142.821 -249.388)
(-171.976 -149.19501 -263.039)
(-171.769 -148.689 -263.19299)
(-172.252 -149.661 -262.87701)
(-172.588 -150.08299 -262.70901)
(-172.97701 -150.45599 -262.53601)
(-173.411 -150.778 -262.35999)
(-173.881 -151.04201 -262.18301)
(-174.38 -151.245 -262.00699)
(-174.899 -151.383 -261.83301)
(-175.431 -151.452 -261.66299)
(-175.968 -151.448 -261.49899)
(-176.50101 -151.36501 -261.34299)
(-177.02299 -151.201 -261.19601)
(-177.543 -150.95 -261.06)
(-178.07001 -150.617 -260.936)
(-178.589 -150.213 -260.828)
(-179.089 -149.75 -260.73599)
(-179.558 -149.23801 -260.664)
(-179.98199 -148.688 -260.61401)
(-180.34801 -148.112 -260.58899)
(-180.646 -147.52 -260.58899)
(-180.86099 -146.925 -260.61899)
(-180.98199 -146.33501 -260.67999)
(-180.995 -145.76401 -260.77399)
(-180.88901 -145.22099 -260.90399)
(-180.661 -144.71899 -261.07001)
(-180.327 -144.26601 -261.26401)
(-179.903 -143.862 -261.48001)
(-179.40401 -143.51199 -261.71399)
(-178.845 -143.218 -261.95801)
(-178.242 -142.981 -262.20801)
(-177.61099 -142.806 -262.457)
(-176.967 -142.69501 -262.69901)
(-176.32401 -142.649 -262.92899)
(-175.7 -142.673 -263.14099)
(-175.108 -142.767 -263.32901)
(-174.565 -142.936 -263.48801)
(-174.06599 -143.183 -263.612)
(-173.59801 -143.504 -263.70401)
(-173.166 -143.88901 -263.76401)
(-172.776 -144.32899 -263.79501)
(-172.433 -144.814 -263.79901)
(-172.142 -145.33501 -263.776)
(-171.908 -145.883 -263.729)
(-171.735 -146.448 -263.66)
(-171.63 -147.021 -263.57001)
(-171.59801 -147.591 -263.461)
(-171.642 -148.14999 -263.33499)
(-106.189 -141.409 -232.153)
(-106.116 -141.929 -232.424)
(-106.301 -141.015 -231.806)
(-106.446 -140.735 -231.39301)
(-106.619 -140.55701 -230.923)
(-106.814 -140.47099 -230.40601)
(-107.026 -140.465 -229.853)
(-107.249 -140.52699 -229.272)
(-107.477 -140.647 -228.674)
(-107.706 -140.811 -228.067)
(-107.928 -141.00999 -227.463)
(-108.334 -141.464 -226.3)
(-108.474 -141.703 -225.75101)
(-108.533 -141.95399 -225.22701)
(-108.523 -142.22 -224.73399)
(-108.458 -142.504 -224.28101)
(-108.348 -142.811 -223.877)
(-108.206 -143.14301 -223.53)
(-108.045 -143.505 -223.24899)
(-107.876 -143.89999 -223.041)
(-107.712 -144.33099 -222.916)
(-107.565 -144.802 -222.882)
(-107.447 -145.31599 -222.948)
(-107.37 -145.87801 -223.121)
(-107.336 -146.427 -223.38699)
(-107.33 -146.90401 -223.72)
(-107.345 -147.308 -224.112)
(-107.372 -147.642 -224.55499)
(-107.404 -147.90401 -225.041)
(-107.433 -148.09801 -225.562)
(-107.451 -148.22301 -226.11099)
(-107.45 -148.28101 -226.679)
(-107.422 -148.272 -227.259)
(-107.36 -148.198 -227.842)
(-107.254 -148.05901 -228.42)
(-107.098 -147.856 -228.98599)
(-106.92 -147.58701 -229.539)
(-106.755 -147.254 -230.078)
(-106.605 -146.864 -230.593)
(-106.47 -146.423 -231.07201)
(-106.353 -145.94 -231.506)
(-106.253 -145.42 -231.88499)
(-106.174 -144.871 -232.19901)
(-106.115 -144.299 -232.436)
(-106.079 -143.71201 -232.588)
(-106.066 -143.117 -232.64301)
(-106.078 -142.52 -232.592)
(-182.7 -141.465 -255.55701)
(-182.506 -140.89999 -255.416)
(-182.836 -142.02699 -255.57899)
(-182.922 -142.58 -255.493)
(-182.966 -143.119 -255.31)
(-182.978 -143.638 -255.03799)
(-182.966 -144.133 -254.688)
(-182.937 -144.59801 -254.271)
(-182.901 -145.02699 -253.79601)
(-182.866 -145.41499 -253.27499)
(-182.841 -145.758 -252.716)
(-182.83299 -146.049 -252.13)
(-182.85201 -146.284 -251.528)
(-182.85201 -146.43401 -250.908)
(-182.78799 -146.48 -250.27)
(-182.67 -146.431 -249.62399)
(-182.504 -146.29401 -248.981)
(-182.3 -146.076 -248.351)
(-182.065 -145.787 -247.745)
(-181.80901 -145.433 -247.172)
(-181.53999 -145.02299 -246.64301)
(-181.26601 -144.565 -246.168)
(-180.995 -144.067 -245.758)
(-180.735 -143.536 -245.423)
(-180.496 -142.98 -245.174)
(-180.30299 -142.422 -245.028)
(-180.16701 -141.879 -244.991)
(-180.082 -141.354 -245.056)
(-180.039 -140.851 -245.213)
(-180.028 -140.373 -245.455)
(-180.04201 -139.92101 -245.772)
(-180.07201 -139.5 -246.157)
(-180.10899 -139.11099 -246.60201)
(-180.146 -138.759 -247.097)
(-180.172 -138.44501 -247.634)
(-180.17999 -138.172 -248.20599)
(-180.162 -137.94501 -248.80299)
(-180.161 -137.78799 -249.42799)
(-180.224 -137.722 -250.08)
(-180.342 -137.743 -250.74699)
(-180.507 -137.845 -251.41701)
(-180.71001 -138.021 -252.077)
(-180.94299 -138.267 -252.716)
(-181.19701 -138.578 -253.321)
(-181.465 -138.94701 -253.88)
(-181.73801 -139.369 -254.381)
(-182.009 -139.839 -254.813)
(-182.267 -140.351 -255.162)
(-129.006 -144.242 -213.603)
(-129.061 -145.045 -213.662)
(-129.295 -145.90199 -213.96001)
(-129.688 -146.79201 -214.452)
(-130.224 -147.69 -215.092)
(-130.884 -148.575 -215.83299)
(-131.64999 -149.422 -216.631)
(-132.504 -150.20799 -217.439)
(-133.42799 -150.911 -218.211)
(-134.403 -151.508 -218.90199)
(-135.412 -151.97501 -219.466)
(-136.436 -152.289 -219.856)
(-138.192 -138.02 -216.806)
(-138.054 -138.021 -216.942)
(-137.685 -138.02499 -217.32201)
(-137.13 -138.03101 -217.899)
(-136.43201 -138.039 -218.629)
(-135.633 -138.047 -219.467)
(-134.776 -138.05499 -220.366)
(-133.90601 -138.063 -221.282)
(-133.064 -138.069 -222.16901)
(-132.295 -138.07401 -222.981)
(-131.64101 -138.077 -223.674)
(-131.145 -138.076 -224.202)
(-130.851 -138.071 -224.52)
(-129.061 -145.043 -213.66299)
(-129.29201 -145.895 -213.966)
(-129.68401 -146.778 -214.464)
(-130.217 -147.668 -215.11099)
(-130.87399 -148.54401 -215.86)
(-131.638 -149.384 -216.664)
(-132.49001 -150.166 -217.47701)
(-133.41299 -150.867 -218.25101)
(-134.38901 -151.466 -218.94)
(-135.39999 -151.94 -219.49699)
(-136.429 -152.26801 -219.875)
(-138.492 -152.41499 -219.89301)
(-139.535 -152.25 -219.478)
(-140.57001 -151.94501 -218.83701)
(-141.578 -151.51199 -218.03)
(-142.53999 -150.963 -217.112)
(-143.439 -150.312 -216.13901)
(-144.257 -149.57001 -215.17)
(-144.974 -148.75101 -214.25999)
(-145.57201 -147.867 -213.467)
(-146.034 -146.92999 -212.847)
(-146.34 -145.95399 -212.457)
(-146.474 -144.94901 -212.354)
(-138.069 -138.021 -216.94299)
(-137.71001 -138.02499 -217.323)
(-137.16 -138.03101 -217.901)
(-136.463 -138.039 -218.631)
(-135.66299 -138.047 -219.468)
(-134.80299 -138.05499 -220.367)
(-133.927 -138.063 -221.283)
(-133.08 -138.069 -222.16901)
(-132.30499 -138.07401 -222.98199)
(-131.646 -138.077 -223.674)
(-131.147 -138.076 -224.202)
(-138.485 -152.395 -219.912)
(-139.524 -152.216 -219.509)
(-140.556 -151.903 -218.875)
(-141.563 -151.467 -218.07001)
(-142.526 -150.92101 -217.14999)
(-143.427 -150.274 -216.173)
(-144.246 -149.53999 -215.19701)
(-144.966 -148.729 -214.28)
(-145.567 -147.853 -213.479)
(-146.03101 -146.923 -212.853)
(-146.34 -145.952 -212.45799)
(-144.164 -178.565 -215.319)
(-143.472 -178.991 -215.088)
(-145.10001 -149.72301 -200.56599)
(-145.79401 -149.847 -200.84599)
(-144.343 -149.645 -200.375)
(-143.519 -149.60001 -200.241)
(-142.619 -149.576 -200.13)
(-141.63901 -149.55901 -200.008)
(-140.57201 -149.537 -199.842)
(-139.411 -149.49699 -199.597)
(-138.28799 -149.541 -199.42)
(-137.326 -149.763 -199.459)
(-136.507 -150.133 -199.68401)
(-135.812 -150.62399 -200.06799)
(-144.345 -155.45399 -216.24001)
(-142.989 -155.838 -216.836)
(-145.55701 -155.05099 -215.325)
(-146.60699 -154.62601 -214.153)
(-147.476 -154.177 -212.786)
(-170.763 -140.07899 -254.77699)
(-171.18401 -139.862 -254.25999)
(-171.35001 -139.83299 -254.13901)
(-171.798 -139.755 -253.811)
(-172.47701 -139.63901 -253.31599)
(-115.31 -140.52699 -245.888)
(-137.51199 -151.54401 -223.681)
(-137.58701 -151.009 -224.36501)
(-137.67599 -150.367 -224.961)
(-137.77299 -149.62801 -225.47)
(-137.87199 -148.802 -225.895)
(-137.96899 -147.897 -226.23599)
(-138.05701 -146.924 -226.496)
(-138.132 -145.892 -226.677)
(-138.187 -144.811 -226.77901)
(-138.218 -143.814 -226.713)
(-138.231 -142.89 -226.411)
(-138.229 -142.03999 -225.903)
(-138.217 -141.26601 -225.218)
(-138.198 -140.57001 -224.38499)
(-138.17599 -139.95399 -223.43201)
(-138.15401 -139.418 -222.38699)
(-138.138 -138.966 -221.28101)
(-138.129 -138.599 -220.14)
(-134.287 -157.504 -212.683)
(-133.425 -157.49899 -211.722)
(-135.375 -157.422 -213.668)
(-136.70599 -157.244 -214.67)
(-138.297 -156.96001 -215.687)
(-139.98599 -156.61501 -216.435)
(-141.58501 -156.261 -216.67799)
(-143.07401 -155.894 -216.47701)
(-144.436 -155.51199 -215.89301)
(-145.653 -155.112 -214.98599)
(-146.705 -154.692 -213.819)
(-139.58701 -152.312 -219.112)
(-138.534 -152.48 -219.504)
(-140.627 -152.006 -218.496)
(-141.63699 -151.575 -217.71201)
(-142.60001 -151.03 -216.81599)
(-143.496 -150.38499 -215.864)
(-144.30901 -149.64999 -214.91)
(-118.425 -140.019 -234.655)
(-117.72 -140.524 -234.883)
(-117.096 -141.101 -235.071)
(-116.578 -141.748 -235.22301)
(-116.192 -142.463 -235.34801)
(-115.964 -143.243 -235.45)
(-115.921 -144.086 -235.537)
(-116.076 -144.989 -235.616)
(-116.403 -145.83 -235.674)
(-116.876 -146.605 -235.701)
(-117.471 -147.314 -235.689)
(-118.162 -147.952 -235.629)
(-118.926 -148.517 -235.51199)
(-119.737 -149.006 -235.33099)
(-176.506 -148.59 -254.27299)
(-176.944 -148.26601 -254.653)
(-177.312 -147.877 -255.00101)
(-177.597 -147.41901 -255.32201)
(-177.787 -146.89301 -255.62)
(-177.869 -146.295 -255.897)
(-177.83 -145.62399 -256.15799)
(-177.65601 -144.879 -256.40701)
(-177.366 -144.14999 -256.61899)
(-176.97501 -143.47501 -256.78)
(-176.5 -142.858 -256.888)
(-175.955 -142.298 -256.93701)
(-175.353 -141.797 -256.92401)
(-174.709 -141.358 -256.845)
(-174.037 -140.98 -256.69699)
(-173.35201 -140.66701 -256.47501)
(-108.248 -141.496 -226.3)
)


// edges:

395
(
(3 4)
(4 5)
(5 6)
(6 7)
(7 8)
(8 9)
(9 10)
(10 11)
(11 12)
(12 13)
(13 14)
(14 15)
(15 16)
(16 17)
(17 18)
(18 19)
(19 20)
(20 21)
(21 22)
(22 23)
(23 24)
(24 25)
(25 26)
(26 27)
(27 28)
(28 29)
(29 30)
(30 31)
(31 32)
(32 33)
(33 34)
(34 35)
(35 36)
(36 37)
(37 38)
(38 39)
(39 40)
(40 41)
(41 42)
(42 43)
(43 44)
(44 45)
(45 46)
(46 47)
(47 48)
(48 49)
(49 50)
(50 3)
(51 52)
(53 51)
(54 53)
(55 54)
(56 55)
(57 56)
(58 57)
(59 58)
(60 59)
(61 60)
(62 61)
(63 62)
(64 63)
(0 64)
(65 0)
(66 65)
(67 66)
(68 67)
(69 68)
(70 69)
(71 70)
(72 71)
(73 72)
(74 73)
(75 74)
(76 75)
(77 76)
(78 77)
(79 78)
(80 79)
(81 80)
(82 81)
(83 82)
(84 83)
(85 84)
(86 85)
(87 86)
(88 87)
(89 88)
(90 89)
(91 90)
(92 91)
(93 92)
(94 93)
(95 94)
(96 95)
(97 96)
(52 97)
(98 99)
(100 98)
(101 100)
(102 101)
(103 102)
(104 103)
(105 104)
(106 105)
(107 106)
(108 107)
(109 108)
(110 109)
(111 110)
(112 111)
(113 112)
(114 113)
(115 114)
(116 115)
(117 116)
(118 117)
(119 118)
(120 119)
(121 120)
(122 121)
(123 122)
(124 123)
(125 124)
(126 125)
(127 126)
(128 127)
(129 128)
(130 129)
(131 130)
(132 131)
(133 132)
(134 133)
(135 134)
(136 135)
(137 136)
(138 137)
(139 138)
(140 139)
(141 140)
(142 141)
(143 142)
(144 143)
(145 144)
(99 145)
(146 147)
(148 146)
(149 148)
(150 149)
(151 150)
(152 151)
(153 152)
(154 153)
(155 154)
(156 155)
(2 156)
(157 2)
(158 157)
(159 158)
(160 159)
(161 160)
(162 161)
(163 162)
(164 163)
(165 164)
(166 165)
(167 166)
(168 167)
(169 168)
(170 169)
(171 170)
(172 171)
(173 172)
(174 173)
(175 174)
(176 175)
(177 176)
(178 177)
(179 178)
(180 179)
(181 180)
(182 181)
(183 182)
(184 183)
(185 184)
(186 185)
(187 186)
(188 187)
(189 188)
(190 189)
(191 190)
(192 191)
(147 192)
(193 194)
(195 193)
(196 195)
(197 196)
(198 197)
(199 198)
(200 199)
(201 200)
(202 201)
(203 202)
(204 203)
(205 204)
(206 205)
(207 206)
(208 207)
(209 208)
(210 209)
(211 210)
(212 211)
(213 212)
(214 213)
(215 214)
(216 215)
(217 216)
(218 217)
(219 218)
(220 219)
(221 220)
(222 221)
(223 222)
(224 223)
(225 224)
(226 225)
(227 226)
(228 227)
(229 228)
(230 229)
(231 230)
(232 231)
(233 232)
(234 233)
(235 234)
(236 235)
(237 236)
(238 237)
(239 238)
(240 239)
(194 240)
(311 312)
(313 314)
(315 313)
(316 315)
(317 316)
(318 317)
(319 318)
(320 319)
(321 320)
(322 321)
(323 322)
(324 323)
(325 326)
(327 325)
(328 327)
(329 328)
(330 331)
(331 332)
(332 333)
(333 334)
(335 0)
(336 337)
(337 338)
(338 339)
(339 340)
(340 341)
(341 342)
(342 343)
(343 344)
(344 345)
(345 346)
(346 347)
(347 348)
(348 349)
(349 350)
(350 351)
(351 352)
(352 353)
(354 355)
(356 354)
(357 356)
(358 357)
(359 358)
(360 359)
(361 360)
(362 361)
(363 362)
(364 363)
(365 366)
(367 365)
(368 367)
(369 368)
(370 369)
(371 370)
(372 373)
(373 374)
(374 375)
(375 376)
(376 377)
(377 378)
(378 379)
(379 380)
(380 381)
(381 382)
(382 383)
(383 384)
(384 385)
(386 387)
(387 388)
(388 389)
(389 390)
(390 391)
(391 392)
(392 393)
(393 394)
(394 395)
(395 396)
(396 397)
(397 398)
(398 399)
(399 400)
(400 401)
(2 402)
(241 242)
(242 243)
(243 244)
(244 245)
(245 246)
(246 247)
(247 248)
(248 249)
(249 250)
(250 251)
(251 252)
(252 1)
(253 254)
(254 255)
(255 256)
(256 257)
(257 258)
(258 259)
(259 260)
(260 261)
(261 262)
(262 263)
(263 264)
(264 265)
(266 241)
(267 266)
(268 267)
(269 268)
(270 269)
(271 270)
(272 271)
(273 272)
(274 273)
(275 274)
(276 275)
(1 276)
(277 1)
(278 277)
(279 278)
(280 279)
(281 280)
(282 281)
(283 282)
(284 283)
(285 284)
(286 285)
(287 286)
(288 287)
(289 253)
(290 289)
(291 290)
(292 291)
(293 292)
(294 293)
(295 294)
(296 295)
(297 296)
(298 297)
(299 298)
(265 299)
(1 300)
(300 301)
(301 302)
(302 303)
(303 304)
(304 305)
(305 306)
(306 307)
(307 308)
(308 309)
(309 310)
(310 288)
)

// * * * * * * * * * * * * * * * * * * * * * * * * * * * * * * * * * * * * * //


// ************************************************************************* //
