/*--------------------------------*- C++ -*----------------------------------*\
  =========                 |
  \\      /  F ield         | OpenFOAM: The Open Source CFD Toolbox
   \\    /   O peration     | Website:  https://openfoam.org
    \\  /    A nd           | Version:  7
     \\/     M anipulation  |
\*---------------------------------------------------------------------------*/
FoamFile
{
    version     2.0;
    format      ascii;
    class       dictionary;
    location    "constant/polyMesh";
    object      meshMetaDict;
}
// * * * * * * * * * * * * * * * * * * * * * * * * * * * * * * * * * * * * * //

surfaceFile     "Patched.stl";

surfaceMeta
{
    nPoints         10306;
    nFacets         20608;
    nPatches        6;
    nFeatureEdges   0;
    patches
    {
        patch0
        {
            type            empty;
            nFacets         724;
        }
        patch1
        {
            type            empty;
            nFacets         172;
        }
        patch2
        {
            type            empty;
            nFacets         268;
        }
        patch3
        {
            type            empty;
            nFacets         170;
        }
        patch4
        {
            type            empty;
            nFacets         372;
        }
        patch5
        {
            type            empty;
            nFacets         18902;
        }
    }
    pointSubsets
    {
    }
    facetSubsets
    {
    }
    featureEdgeSubsets
    {
    }
}
