/*--------------------------------*- C++ -*----------------------------------*\
  =========                 |
  \\      /  F ield         | OpenFOAM: The Open Source CFD Toolbox
   \\    /   O peration     | Website:  https://openfoam.org
    \\  /    A nd           | Version:  7
     \\/     M anipulation  |
\*---------------------------------------------------------------------------*/
FoamFile
{
    version     2.0;
    format      ascii;
    class       polyBoundaryMesh;
    location    "constant/polyMesh";
    object      boundary;
}
// * * * * * * * * * * * * * * * * * * * * * * * * * * * * * * * * * * * * * //

4
(
    wall
    {
        type            wall;
        //physicalType    patch;
        nFaces          48888;
        startFace       1649636;
    }
    inlet
    {
        type            patch;
        physicalType    patch;
        nFaces          2400;
        startFace       1698524;
    }
    LMPA
    {
        type            patch;
        physicalType    patch;
        nFaces          1432;
        startFace       1700924;
    }
    RMPA
    {
        type            patch;
        physicalType    patch;
        nFaces          1480;
        startFace       1702356;
    }
)

// ************************************************************************* //
