/*--------------------------------*- C++ -*----------------------------------*\
  =========                 |
  \\      /  F ield         | OpenFOAM: The Open Source CFD Toolbox
   \\    /   O peration     | Website:  https://openfoam.org
    \\  /    A nd           | Version:  7
     \\/     M anipulation  |
\*---------------------------------------------------------------------------*/
FoamFile
{
    version     2.0;
    format      ascii;
    class       dictionary;
    location    "constant/polyMesh";
    object      meshMetaDict;
}
// * * * * * * * * * * * * * * * * * * * * * * * * * * * * * * * * * * * * * //

surfaceFile     "output.stl";

surfaceMeta
{
    nPoints         6305;
    nFacets         12606;
    nPatches        4;
    nFeatureEdges   0;
    patches
    {
        patch0
        {
            type            empty;
            nFacets         696;
        }
        patch1
        {
            type            empty;
            nFacets         168;
        }
        patch2
        {
            type            empty;
            nFacets         168;
        }
        patch3
        {
            type            empty;
            nFacets         11574;
        }
    }
    pointSubsets
    {
    }
    facetSubsets
    {
    }
    featureEdgeSubsets
    {
    }
}
